data_3D\Atomistic
_audit_creation_date              2011-09-16
_audit_creation_method            'Materials Studio'
_symmetry_space_group_name_H-M    'I-42D'
_symmetry_Int_Tables_number       122
_symmetry_cell_setting            tetragonal
loop_
_symmetry_equiv_pos_as_xyz
  x,y,z
  -x,-y,z
  y,-x,-z
  -y,x,-z
  -x+1/2,y,-z+3/4
  x+1/2,-y,-z+3/4
  -y+1/2,-x,z+3/4
  y+1/2,x,z+3/4
  x+1/2,y+1/2,z+1/2
  -x+1/2,-y+1/2,z+1/2
  y+1/2,-x+1/2,-z+1/2
  -y+1/2,x+1/2,-z+1/2
  -x,y+1/2,-z+1/4
  x,-y+1/2,-z+1/4
  -y,-x+1/2,z+1/4
  y,x+1/2,z+1/4
_cell_length_a                    5.7810
_cell_length_b                    5.7810
_cell_length_c                    11.6422
_cell_angle_alpha                 90.0000
_cell_angle_beta                  90.0000
_cell_angle_gamma                 90.0000
loop_
_atom_site_label
_atom_site_type_symbol
_atom_site_fract_x
_atom_site_fract_y
_atom_site_fract_z
_atom_site_U_iso_or_equiv
_atom_site_adp_type
_atom_site_occupancy
Cu     Cu   -0.50000   0.50000   0.00000   0.00000  Uiso   1.00
In     In   -0.50000   0.50000   0.50000   0.00000  Uiso   1.00
Se     Se   -0.27400   0.75000   0.12500   0.00000  Uiso   1.00
loop_
_geom_bond_atom_site_label_1
_geom_bond_atom_site_label_2
_geom_bond_distance
_geom_bond_site_symmetry_2
_ccdc_geom_bond_type
Cu     Se      2.432   .     S
Cu     Se      2.432   2_465 S
Cu     Se      2.432   3_455 S
Cu     Se      2.432   4_565 S
In     Se      2.591   6_465 S
In     Se      2.591   5_455 S
In     Se      2.591   11_355 S
In     Se      2.591   12    S
Se     Cu      2.432   13_455 S
Se     In      2.591   9_554 S
Se     In      2.591   5_455 S
