# generated using pymatgen
data_LiCoO2
_symmetry_space_group_name_H-M   'P 1'
_cell_length_a   2.81125698
_cell_length_b   2.81125698
_cell_length_c   13.90945643
_cell_angle_alpha   90.00000000
_cell_angle_beta   90.00000000
_cell_angle_gamma   120.00000000
_symmetry_Int_Tables_number   1
_chemical_formula_structural   LiCoO2
_chemical_formula_sum   'Li3 Co3 O6'
_cell_volume   95.20108165
_cell_formula_units_Z   3
loop_
 _symmetry_equiv_pos_site_id
 _symmetry_equiv_pos_as_xyz
  1  'x, y, z'
loop_
 _atom_type_symbol
 _atom_type_oxidation_number
  Li+  1.0
  Co3+  3.0
  O2-  -2.0
loop_
 _atom_site_type_symbol
 _atom_site_label
 _atom_site_symmetry_multiplicity
 _atom_site_fract_x
 _atom_site_fract_y
 _atom_site_fract_z
 _atom_site_occupancy
  Li+  Li0  1  0.00000000  0.00000000  0.00000000  1
  Li+  Li1  1  0.66666667  0.33333333  0.33333333  1
  Li+  Li2  1  0.33333333  0.66666667  0.66666667  1
  Co3+  Co3  1  0.33333333  0.66666667  0.16666667  1
  Co3+  Co4  1  1.00000000  1.00000000  0.50000000  1
  Co3+  Co5  1  0.66666667  0.33333333  0.83333333  1
  O2-  O6  1  0.00000000  0.00000000  0.24000680  1
  O2-  O7  1  0.66666667  0.33333333  0.09332653  1
  O2-  O8  1  0.66666667  0.33333333  0.57334013  1
  O2-  O9  1  0.33333333  0.66666667  0.42665987  1
  O2-  O10  1  0.33333333  0.66666667  0.90667347  1
  O2-  O11  1  0.00000000  0.00000000  0.75999320  1
