data_SrTiO3-real
_audit_creation_date              2023-08-19
_audit_creation_method            'Materials Studio'
_symmetry_space_group_name_H-M    'P1'
_symmetry_Int_Tables_number       1
_symmetry_cell_setting            triclinic
loop_
_symmetry_equiv_pos_as_xyz
  x,y,z
_cell_length_a                    3.9050
_cell_length_b                    3.9050
_cell_length_c                    3.9050
_cell_angle_alpha                 90.0000
_cell_angle_beta                  90.0000
_cell_angle_gamma                 90.0000
loop_
_atom_site_label
_atom_site_type_symbol
_atom_site_fract_x
_atom_site_fract_y
_atom_site_fract_z
_atom_site_U_iso_or_equiv
_atom_site_adp_type
_atom_site_occupancy
Ti1    Ti    0.50000   0.50000   0.50000   0.00000  Uiso   1.00
Sr2    Sr    0.00000   0.00000   0.00000   0.00000  Uiso   1.00
O3     O     0.00000   0.50000   0.50000   0.00000  Uiso   1.00
O4     O     0.50000   0.00000   0.50000   0.00000  Uiso   1.00
O5     O     0.50000   0.50000   0.00000   0.00000  Uiso   1.00
loop_
_geom_bond_atom_site_label_1
_geom_bond_atom_site_label_2
_geom_bond_distance
_geom_bond_site_symmetry_2
_ccdc_geom_bond_type
Ti1    O3      1.953   1_655 S
Ti1    O4      1.953   1_565 S
Ti1    O5      1.953   1_556 S
O3     Ti1     1.953   1_455 S
O4     Ti1     1.953   1_545 S
O5     Ti1     1.953   1_554 S
